Circuit: * D:\Perso\Effects\Eon\Test\crossover2.asc


Date: Thu Jun 05 11:36:31 2014
Total elapsed time: 0.000 seconds.

tnom = 27
temp = 27
method = trap
totiter = 0
traniter = 0
tranpoints = 0
accept = 0
rejected = 0
matrix size = 4
fillins = 0
solver = Alternate

