Circuit: * /Volumes/DATA/Projects/Elec/Eon/Test/crossover.asc

Early termination of direct N-R iteration.
Direct Newton iteration failed to find .op point.  (Use ".option noopiter" to skip.)
Starting Gmin stepping
Gmin = 10
Gmin = 1.07374
Gmin = 0.115292
Gmin = 0.0123794
Gmin = 0.00132923
Gmin = 0.000142725
Gmin = 1.5325e-05
Gmin = 1.6455e-06
Gmin = 1.76685e-07
Gmin = 1.89714e-08
Gmin = 2.03704e-09
Gmin = 2.18725e-10
Gmin = 2.34854e-11
Gmin = 2.52173e-12
Gmin = 2.70769e-13
Gmin = 0
Gmin stepping succeeded in finding the operating point.


Date: Sun Jun  1 08:39:57 2014
Total elapsed time: 0.140 seconds.

tnom = 27
temp = 27
method = trap
totiter = 339
traniter = 0
tranpoints = 0
accept = 0
rejected = 0
matrix size = 54
fillins = 82
solver = Alternate
Matrix Compiler1:     326 opcodes
Matrix Compiler2: off

