Circuit: * D:\Perso\Effects\Eon\Rat2\rat2_blend.asc

WARNING: Node N003 is floating.

WARNING: Less than two connections to node N003.  This node is used by R7.
Direct Newton iteration for .op point succeeded.

Date: Fri Jul 18 11:59:12 2014
Total elapsed time: 41.125 seconds.

tnom = 27
temp = 27
method = modified trap
totiter = 1510470
traniter = 1510453
tranpoints = 730219
accept = 666671
rejected = 63548
matrix size = 39
fillins = 57
solver = Alternate
Matrix Compiler1: 7.28 Ko object code size  3.2/2.6/[1.2]
Matrix Compiler2: 4.59 Ko object code size  1.2/1.6/[1.0]


