Circuit: * D:\Perso\Effects\Eon\Rat2\rat2.asc

WARNING: Node N006 is floating.

WARNING: Less than two connections to node N006.  This node is used by C10.
Direct Newton iteration for .op point succeeded.

Date: Thu Jul 17 16:30:32 2014
Total elapsed time: 25.734 seconds.

tnom = 27
temp = 27
method = modified trap
totiter = 950683
traniter = 950634
tranpoints = 475318
accept = 475318
rejected = 0
matrix size = 38
fillins = 48
solver = Alternate
Matrix Compiler1: 5.82 Ko object code size  3.0/2.2/[1.1]
Matrix Compiler2: 4.32 Ko object code size  1.3/1.7/[1.3]


