Circuit: * D:\Perso\Effects\Eon\Rat2\rat2_blend_deph.asc

Early termination of direct N-R iteration.
Direct Newton iteration failed to find .op point.  (Use ".option noopiter" to skip.)
Starting Gmin stepping
Gmin = 10
vernier = 0.5
vernier = 0.25
vernier = 0.125
Gmin = 5.5165
vernier = 0.0625
vernier = 0.03125
vernier = 0.015625
vernier = 0.0078125
Gmin = 5.49501
vernier = 0.00390625
vernier = 0.00195313
vernier = 0.000976563
vernier = 0.000488281
Gmin = 5.50104
Gmin = 0
Gmin stepping failed

Starting source stepping with srcstepmethod=0
Source Step = 3.0303%
Source Step = 33.3333%
Source Step = 63.6364%
Source Step = 93.9394%
Source stepping succeeded in finding the operating point.


Date: Thu Oct 02 14:52:27 2014
Total elapsed time: 18.641 seconds.

tnom = 27
temp = 27
method = modified trap
totiter = 74088
traniter = 72341
tranpoints = 32507
accept = 29089
rejected = 3418
matrix size = 176
fillins = 3042
solver = Alternate
Thread vector: 46.4/34.8[2] 16.5/11.1[2] 7.7/6.5[2] 6.7/13.5[1]  2592/500
Matrix Compiler1: 857 Ko object code size  257.5/171.8/[122.6]
Matrix Compiler2: 77.4 Ko object code size  18.5/15.3/[7.9]


