Circuit: * D:\Perso\Effects\Eon\Rat2\rat2_blend.asc

Early termination of direct N-R iteration.
Direct Newton iteration failed to find .op point.  (Use ".option noopiter" to skip.)
Starting Gmin stepping
Gmin = 10
vernier = 0.5
vernier = 0.25
vernier = 0.125
Gmin = 5.5165
vernier = 0.0625
vernier = 0.03125
vernier = 0.015625
vernier = 0.0078125
Gmin = 5.49501
vernier = 0.00390625
vernier = 0.00195313
vernier = 0.000976563
vernier = 0.000488281
Gmin = 5.50104
Gmin = 0
Gmin stepping failed

Starting source stepping with srcstepmethod=0
Source Step = 3.0303%
Source Step = 33.3333%
Source Step = 63.6364%
Source Step = 93.9394%
Source stepping succeeded in finding the operating point.


Date: Wed Aug 20 10:49:25 2014
Total elapsed time: 108.031 seconds.

tnom = 27
temp = 27
method = modified trap
totiter = 1437739
traniter = 1435984
tranpoints = 685929
accept = 634592
rejected = 51337
matrix size = 110
fillins = 912
solver = Alternate
Thread vector: 25.7/20.0[2] 13.6/6.8[2] 6.5/5.4[2] 2.9/2.3[2]  2592/500
Matrix Compiler1: 130 Ko object code size  35.5/27.2/[17.3]
Matrix Compiler2: 29.2 Ko object code size  7.1/7.3/[2.9]


