Circuit: * gnetlist -g spice-sdb -o big_muff_spice.net big_muff.sch

Direct Newton iteration for .op point succeeded.

Date: Fri May 23 12:14:31 2014
Total elapsed time: 21.563 seconds.

tnom = 27
temp = 25
method = modified trap
totiter = 967790
traniter = 967775
tranpoints = 480386
accept = 477651
rejected = 2735
matrix size = 45
fillins = 16
solver = Normal
Matrix Compiler1: 3.99 Ko object code size  1.9/2.1/[0.7]
Matrix Compiler2: 4.08 Ko object code size  2.0/1.2/[1.0]


