Circuit: * C:\Program Files\gEDA\gEDA\bin\gnetlist.exe -g spice-sdb -o big_muff_spice_relabeled.net big_muff.sch

Direct Newton iteration for .op point succeeded.

Date: Wed May 07 15:50:12 2014
Total elapsed time: 23.827 seconds.

tnom = 27
temp = 25
method = modified trap
totiter = 967790
traniter = 967775
tranpoints = 480386
accept = 477651
rejected = 2735
matrix size = 45
fillins = 16
solver = Normal
Matrix Compiler1: 3.99 Ko object code size  1.8/1.8/[0.6]
Matrix Compiler2: 4.08 Ko object code size  1.0/1.3/[0.9]


