Circuit: * D:\Perso\Effects\Eon\BigMuzz\bigmuzz_crossover.asc

