Circuit: * D:\Perso\Effects\Eon\BigMuzz\bigmuzz_crossover.asc

WARNING: Node INPUT is floating.

WARNING: Less than two connections to node NC_01.  This node is used by D2.
Direct Newton iteration for .op point succeeded.

Date: Fri Jun 06 14:36:59 2014
Total elapsed time: 23.188 seconds.

tnom = 27
temp = 27
method = modified trap
totiter = 957282
traniter = 957262
tranpoints = 477215
accept = 475829
rejected = 1386
matrix size = 38
fillins = 12
solver = Alternate
Matrix Compiler1: 3.72 Ko object code size  2.4/1.8/[0.9]
Matrix Compiler2: off  [1.1]/1.3/1.2


