Circuit: * gnetlist -g spice-sdb -o spice.net tech21_spice.sch

WARNING: Less than two connections to node 59.  This node is used by R44.
WARNING: Less than two connections to node 52.  This node is used by R36.
WARNING: Less than two connections to node VOUT.  This node is used by R28.
Early termination of direct N-R iteration.
Direct Newton iteration failed to find .op point.  (Use ".option noopiter" to skip.)
Starting Gmin stepping
Gmin = 10
vernier = 0.5
vernier = 0.25
vernier = 0.125
Gmin = 5.49741
vernier = 0.0625
vernier = 0.03125
vernier = 0.015625
vernier = 0.0078125
vernier = 0.00390625
Gmin = 5.49741
vernier = 0.00195313
vernier = 0.000976563
vernier = 0.000488281
Gmin = 0
Gmin stepping failed

Starting source stepping with srcstepmethod=0
Source Step = 3.0303%
Source Step = 33.3333%
Source Step = 63.6364%
Source Step = 93.9394%
Source stepping succeeded in finding the operating point.


Date: Fri Apr 11 17:44:04 2014
Total elapsed time: 894.203 seconds.

tnom = 27
temp = 25
method = modified trap
totiter = 1157906
traniter = 1156206
tranpoints = 568349
accept = 544052
rejected = 24297
matrix size = 313
fillins = 8220
solver = Normal
Thread vector: 150.9/129.8[2] 20.2/16.5[2] 45.8/36.7[2] 16.9/30.1[1]  2592/500
Matrix Compiler1:  165269 opcodes  809.7/[558.4]/783.5
Matrix Compiler2: 169 Ko object code size  138.8/145.1/[126.0]


