Circuit: * C:\Program Files\gEDA\gEDA\bin\gnetlist.exe -g spice-sdb -o screamer-ltspice.net screamer-ltspice.sch

D1: both pins shorted together -- ignoring.
WARNING: Node UNCONNECTED_PIN-1 is floating.

WARNING: Less than two connections to node UNCONNECTED_PIN-1.  This node is used by C12.
Early termination of direct N-R iteration.
Direct Newton iteration failed to find .op point.  (Use ".option noopiter" to skip.)
Starting Gmin stepping
Gmin = 10
vernier = 0.5
vernier = 0.25
vernier = 0.125
Gmin = 5.5165
vernier = 0.0625
vernier = 0.03125
vernier = 0.015625
vernier = 0.0078125
Gmin = 5.48432
vernier = 0.00390625
vernier = 0.00195313
vernier = 0.000976563
vernier = 0.000488281
Gmin = 0
Gmin = 0
Gmin stepping succeeded in finding the operating point.


Date: Fri May 23 12:30:40 2014
Total elapsed time: 46.500 seconds.

tnom = 27
temp = 25
method = modified trap
totiter = 992109
traniter = 990735
tranpoints = 495272
accept = 488017
rejected = 7255
matrix size = 83
fillins = 292
solver = Alternate
Matrix Compiler1: 30.0 Ko object code size  10.9/8.7/[4.4]
Matrix Compiler2: 13.4 Ko object code size  4.3/5.0/[2.0]


